Version 4
SHEET 1 880 680
WIRE 240 32 -208 32
WIRE -208 128 -208 32
WIRE 240 304 240 32
FLAG -208 208 0
FLAG 240 384 0
SYMBOL voltage -208 112 R0
WINDOW 123 0 0 Left 0
WINDOW 39 0 0 Left 0
SYMATTR InstName V1
SYMATTR Value PULSE(0 100 10u 2u 10u 10u)
SYMBOL res 224 288 R0
SYMATTR InstName R1
SYMATTR Value 50
