Version 4
SHEET 1 880 680
WIRE 96 -288 -16 -288
WIRE 208 -288 176 -288
WIRE 544 -288 208 -288
WIRE 208 -256 208 -288
WIRE 544 -256 544 -288
WIRE -16 -240 -16 -288
FLAG 208 -192 0
FLAG -16 -160 0
FLAG 544 -176 0
SYMBOL ind 192 -304 R90
WINDOW 0 5 56 VBottom 2
WINDOW 3 32 56 VTop 2
SYMATTR InstName L1
SYMATTR Value 200µ
SYMATTR SpiceLine Ipk=10000 Rser=0.45 Cpar=56p
SYMBOL cap 192 -256 R0
WINDOW 3 32 46 Left 2
SYMATTR Value 1µF
SYMATTR InstName C1
SYMATTR SpiceLine V=1000
SYMBOL current -16 -240 R0
WINDOW 123 24 28 Left 2
WINDOW 39 0 0 Left 0
SYMATTR InstName I1
SYMATTR Value EXP(0 20k 100u 8u 0 20u)
SYMBOL res 528 -272 R0
SYMATTR InstName R1
SYMATTR Value 1
SYMBOL Misc\\xvaristor 432 -96 R0
SYMATTR InstName U1
TEXT -48 -136 Left 2 !.tran 0.05
