Version 4
SHEET 1 1924 1000
WIRE 448 112 448 64
WIRE 448 112 368 112
WIRE -304 128 -464 128
WIRE -160 128 -304 128
WIRE 240 128 -80 128
WIRE 832 144 368 144
WIRE 240 160 208 160
WIRE -464 176 -464 128
WIRE 400 176 368 176
WIRE 240 192 176 192
WIRE 416 208 368 208
WIRE 208 272 208 160
WIRE 400 272 400 176
WIRE 400 272 208 272
WIRE 176 304 176 192
WIRE 416 304 416 208
WIRE 416 304 176 304
WIRE 176 368 176 304
WIRE 1056 496 1024 496
WIRE 1408 496 1136 496
WIRE 1200 560 1136 560
WIRE 1456 576 1456 528
WIRE 1456 576 1376 576
WIRE 832 592 832 144
WIRE 912 592 832 592
WIRE 1024 592 1024 496
WIRE 1024 592 992 592
WIRE 1136 592 1136 560
WIRE 1136 592 1024 592
WIRE 1248 592 1168 592
WIRE 1408 608 1408 496
WIRE 1408 608 1376 608
WIRE 1520 608 1408 608
WIRE 1680 608 1600 608
WIRE 1856 608 1680 608
WIRE 432 624 432 576
WIRE 432 624 352 624
WIRE 1168 624 1168 592
WIRE 1168 624 1104 624
WIRE 1200 624 1200 560
WIRE 1248 624 1200 624
WIRE -304 640 -304 128
WIRE -176 640 -304 640
WIRE 224 640 -96 640
WIRE 1680 640 1680 608
WIRE 384 656 352 656
WIRE 832 656 384 656
WIRE 1248 656 1184 656
WIRE 224 672 192 672
WIRE 1424 672 1376 672
WIRE 832 688 832 656
WIRE 912 688 832 688
WIRE 1056 688 992 688
WIRE 1104 688 1104 624
WIRE 1104 688 1056 688
WIRE 224 704 160 704
WIRE 1856 704 1856 608
WIRE 400 720 352 720
WIRE 1056 736 1056 688
WIRE 1184 768 1184 656
WIRE 1424 768 1424 672
WIRE 1424 768 1184 768
WIRE 192 784 192 672
WIRE 384 784 384 656
WIRE 384 784 192 784
WIRE 160 816 160 704
WIRE 400 816 400 720
WIRE 400 816 160 816
WIRE 1184 832 1184 768
WIRE 160 880 160 816
FLAG 176 448 0
FLAG 448 -16 0
FLAG 1184 912 0
FLAG 1456 448 0
FLAG 160 960 0
FLAG 432 496 0
FLAG 1056 816 0
FLAG -464 256 0
FLAG 1856 784 0
FLAG 1680 704 0
SYMBOL AutoGenerated\\ADA4817 304 160 R0
SYMATTR InstName U1
SYMBOL res -64 112 R90
WINDOW 0 0 56 VBottom 2
WINDOW 3 32 56 VTop 2
SYMATTR InstName R2
SYMATTR Value 0
SYMBOL voltage 176 352 R0
WINDOW 123 0 0 Left 0
WINDOW 39 0 0 Left 0
SYMATTR InstName V1
SYMATTR Value 5
SYMBOL voltage 448 -32 R0
WINDOW 123 0 0 Left 0
WINDOW 39 0 0 Left 0
SYMATTR InstName V2
SYMATTR Value 5
SYMBOL AutoGenerated\\ADA4817 1312 624 R0
SYMATTR InstName U2
SYMBOL voltage 1184 816 R0
WINDOW 123 0 0 Left 0
WINDOW 39 0 0 Left 0
SYMATTR InstName V3
SYMATTR Value 5
SYMBOL voltage 1456 432 R0
WINDOW 123 0 0 Left 0
WINDOW 39 0 0 Left 0
SYMATTR InstName V4
SYMATTR Value 5
SYMBOL AutoGenerated\\ADA4817 288 672 R0
SYMATTR InstName U3
SYMBOL res -80 624 R90
WINDOW 0 0 56 VBottom 2
WINDOW 3 32 56 VTop 2
SYMATTR InstName R4
SYMATTR Value 0
SYMBOL voltage 160 864 R0
WINDOW 123 0 0 Left 0
WINDOW 39 0 0 Left 0
SYMATTR InstName V5
SYMATTR Value 5
SYMBOL voltage 432 480 R0
WINDOW 123 0 0 Left 0
WINDOW 39 0 0 Left 0
SYMATTR InstName V6
SYMATTR Value 5
SYMBOL voltage -464 160 R0
WINDOW 123 24 124 Left 2
WINDOW 39 0 0 Left 0
SYMATTR InstName V8
SYMATTR Value ""
SYMATTR Value2 AC 1 0
SYMBOL res 1616 592 R90
WINDOW 0 0 56 VBottom 2
WINDOW 3 32 56 VTop 2
SYMATTR InstName R9
SYMATTR Value 50
SYMBOL res 1840 688 R0
SYMATTR InstName R10
SYMATTR Value 50
SYMBOL res 1008 576 R90
WINDOW 0 0 56 VBottom 2
WINDOW 3 32 56 VTop 2
SYMATTR InstName R1
SYMATTR Value 50
SYMBOL res 1008 672 R90
WINDOW 0 0 56 VBottom 2
WINDOW 3 32 56 VTop 2
SYMATTR InstName R3
SYMATTR Value 50
SYMBOL res 1152 480 R90
WINDOW 0 0 56 VBottom 2
WINDOW 3 32 56 VTop 2
SYMATTR InstName R5
SYMATTR Value 50
SYMBOL res 1072 832 R180
WINDOW 0 36 76 Left 2
WINDOW 3 36 40 Left 2
SYMATTR InstName R6
SYMATTR Value 50
SYMBOL cap 1664 640 R0
SYMATTR InstName C1
SYMATTR Value 100p
TEXT -498 984 Left 2 !;tran 0 20n 0
TEXT -440 312 Left 2 !.ac dec 50 1e8 1e9
