Version 4
SHEET 1 3636 680
WIRE 544 -272 544 -336
WIRE 1632 -272 544 -272
WIRE 2016 -272 1632 -272
WIRE 2464 -272 2016 -272
WIRE 2912 -272 2464 -272
WIRE 3360 -272 2912 -272
WIRE 3456 -96 3264 -96
WIRE 3008 -80 2816 -80
WIRE 2560 -64 2368 -64
WIRE 1728 -48 1568 -48
WIRE 2112 -48 1920 -48
WIRE 3360 -48 3360 -272
WIRE 2912 -32 2912 -272
WIRE 3264 -32 3264 -96
WIRE 3328 -32 3264 -32
WIRE 624 -16 480 -16
WIRE 2464 -16 2464 -272
WIRE 2816 -16 2816 -80
WIRE 2880 -16 2816 -16
WIRE 3456 -16 3456 -96
WIRE 3456 -16 3392 -16
WIRE 3568 -16 3456 -16
WIRE 2016 0 2016 -272
WIRE 2368 0 2368 -64
WIRE 2432 0 2368 0
WIRE 3008 0 3008 -80
WIRE 3008 0 2944 0
WIRE 3120 0 3008 0
WIRE 3264 0 3200 0
WIRE 3328 0 3264 0
WIRE 1632 16 1632 -272
WIRE 1920 16 1920 -48
WIRE 1984 16 1920 16
WIRE 2560 16 2560 -64
WIRE 2560 16 2496 16
WIRE 2672 16 2560 16
WIRE 2816 16 2752 16
WIRE 2880 16 2816 16
WIRE 544 32 544 -272
WIRE 1568 32 1568 -48
WIRE 1600 32 1568 32
WIRE 2112 32 2112 -48
WIRE 2112 32 2048 32
WIRE 2224 32 2112 32
WIRE 2368 32 2304 32
WIRE 2432 32 2368 32
WIRE 480 48 480 -16
WIRE 512 48 480 48
WIRE 1728 48 1728 -48
WIRE 1728 48 1664 48
WIRE 1776 48 1728 48
WIRE 1920 48 1856 48
WIRE 1984 48 1920 48
WIRE 3264 48 3264 0
WIRE 624 64 624 -16
WIRE 624 64 576 64
WIRE 1392 64 624 64
WIRE 1520 64 1456 64
WIRE 1600 64 1520 64
WIRE 2816 64 2816 16
WIRE 240 80 80 80
WIRE 336 80 240 80
WIRE 512 80 336 80
WIRE 2368 80 2368 32
WIRE 1520 96 1520 64
WIRE 1920 96 1920 48
WIRE 240 144 240 80
WIRE 336 144 336 80
WIRE 16 240 16 80
WIRE 544 352 544 96
WIRE 1632 352 1632 80
WIRE 1632 352 544 352
WIRE 2016 352 2016 64
WIRE 2016 352 1632 352
WIRE 2464 352 2464 48
WIRE 2464 352 2016 352
WIRE 2912 352 2912 32
WIRE 2912 352 2464 352
WIRE 3360 352 3360 16
WIRE 3360 352 2912 352
WIRE 544 416 544 352
FLAG 16 320 0
FLAG 240 208 0
FLAG 336 224 0
FLAG 544 -416 0
FLAG 544 496 0
FLAG 1520 176 0
FLAG 1920 160 0
FLAG 2368 144 0
FLAG 2816 128 0
FLAG 3264 112 0
FLAG 3568 64 0
SYMBOL voltage 16 224 R0
WINDOW 123 0 0 Left 0
WINDOW 39 0 0 Left 0
SYMATTR InstName V1
SYMATTR Value PULSE(0 1 0 0 0 1n 1 1)
SYMBOL cap 224 144 R0
SYMATTR InstName C1
SYMATTR Value 100n
SYMBOL res 320 128 R0
SYMATTR InstName R1
SYMATTR Value 1000
SYMBOL diode 16 64 M90
WINDOW 0 0 32 VBottom 2
WINDOW 3 32 32 VTop 2
SYMATTR InstName D1
SYMBOL Opamps\\AD820 544 0 R0
SYMATTR InstName U1
SYMBOL voltage 544 -320 R180
WINDOW 123 0 0 Left 0
WINDOW 39 0 0 Left 0
SYMATTR InstName V2
SYMATTR Value 5
SYMBOL voltage 544 512 R180
WINDOW 123 0 0 Left 0
WINDOW 39 0 0 Left 0
SYMATTR InstName V3
SYMATTR Value 5
SYMBOL Opamps\\AD820 1632 -16 R0
SYMATTR InstName U2
SYMBOL Opamps\\AD820 2016 -32 R0
SYMATTR InstName U3
SYMBOL res 1504 80 R0
SYMATTR InstName R2
SYMATTR Value 1k
SYMBOL res 1872 32 R90
WINDOW 0 0 56 VBottom 2
WINDOW 3 32 56 VTop 2
SYMATTR InstName R3
SYMATTR Value 1k
SYMBOL cap 1904 96 R0
SYMATTR InstName C3
SYMATTR Value 10n
SYMBOL Opamps\\AD820 2464 -48 R0
SYMATTR InstName U4
SYMBOL res 2320 16 R90
WINDOW 0 0 56 VBottom 2
WINDOW 3 32 56 VTop 2
SYMATTR InstName R4
SYMATTR Value 1k
SYMBOL cap 2352 80 R0
SYMATTR InstName C4
SYMATTR Value 10n
SYMBOL Opamps\\AD820 2912 -64 R0
SYMATTR InstName U5
SYMBOL res 2768 0 R90
WINDOW 0 0 56 VBottom 2
WINDOW 3 32 56 VTop 2
SYMATTR InstName R5
SYMATTR Value 1k
SYMBOL cap 2800 64 R0
SYMATTR InstName C5
SYMATTR Value 10n
SYMBOL Opamps\\AD820 3360 -80 R0
SYMATTR InstName U6
SYMBOL res 3216 -16 R90
WINDOW 0 0 56 VBottom 2
WINDOW 3 32 56 VTop 2
SYMATTR InstName R6
SYMATTR Value 1k
SYMBOL cap 3248 48 R0
SYMATTR InstName C6
SYMATTR Value 10n
SYMBOL res 3552 -32 R0
SYMATTR InstName R7
SYMATTR Value 200
SYMBOL cap 1456 48 R90
WINDOW 0 0 32 VBottom 2
WINDOW 3 32 32 VTop 2
SYMATTR InstName C2
SYMATTR Value 10n
TEXT -16 344 Left 2 !.tran 0 10ms 0
