Version 4
SHEET 1 3760 680
WIRE 1104 -272 1104 -336
WIRE 1616 -272 1104 -272
WIRE 2000 -272 1616 -272
WIRE 2448 -272 2000 -272
WIRE 2896 -272 2448 -272
WIRE 3344 -272 2896 -272
WIRE 3264 -224 3216 -224
WIRE 2816 -208 2784 -208
WIRE 3216 -96 3216 -144
WIRE 3456 -96 3296 -96
WIRE 2784 -80 2784 -128
WIRE 3008 -80 2864 -80
WIRE 2320 -64 2320 -96
WIRE 2352 -64 2320 -64
WIRE 2560 -64 2432 -64
WIRE 1680 -48 1568 -48
WIRE 2112 -48 1920 -48
WIRE 3344 -48 3344 -272
WIRE 2896 -32 2896 -272
WIRE 3216 -32 3216 -96
WIRE 3328 -32 3216 -32
WIRE 2448 -16 2448 -272
WIRE 2784 -16 2784 -80
WIRE 2880 -16 2784 -16
WIRE 3456 -16 3456 -96
WIRE 3456 -16 3392 -16
WIRE 3520 -16 3456 -16
WIRE 3680 -16 3584 -16
WIRE 2000 0 2000 -272
WIRE 2320 0 2320 -64
WIRE 2432 0 2320 0
WIRE 3008 0 3008 -80
WIRE 3008 0 2944 0
WIRE 3120 0 3008 0
WIRE 3264 0 3200 0
WIRE 3328 0 3264 0
WIRE 1616 16 1616 -272
WIRE 1920 16 1920 -48
WIRE 1984 16 1920 16
WIRE 2560 16 2560 -64
WIRE 2560 16 2496 16
WIRE 2672 16 2560 16
WIRE 2816 16 2752 16
WIRE 2880 16 2816 16
WIRE 1568 32 1568 -48
WIRE 1600 32 1568 32
WIRE 2112 32 2112 -48
WIRE 2112 32 2048 32
WIRE 2224 32 2112 32
WIRE 2368 32 2304 32
WIRE 2432 32 2368 32
WIRE 1680 48 1680 -48
WIRE 1680 48 1664 48
WIRE 1776 48 1680 48
WIRE 1920 48 1856 48
WIRE 1984 48 1920 48
WIRE 3264 48 3264 0
WIRE 1392 64 976 64
WIRE 1520 64 1456 64
WIRE 1600 64 1520 64
WIRE 2816 64 2816 16
WIRE 2368 80 2368 32
WIRE 1520 96 1520 64
WIRE 1920 96 1920 48
WIRE 976 144 976 64
WIRE 1616 352 1616 80
WIRE 1616 352 1104 352
WIRE 2000 352 2000 64
WIRE 2000 352 1616 352
WIRE 2448 352 2448 48
WIRE 2448 352 2000 352
WIRE 2896 352 2896 32
WIRE 2896 352 2448 352
WIRE 3344 352 3344 16
WIRE 3344 352 2896 352
WIRE 1104 416 1104 352
FLAG 1104 -416 0
FLAG 1104 496 0
FLAG 1520 176 0
FLAG 1920 160 0
FLAG 2368 144 0
FLAG 2816 128 0
FLAG 3264 112 0
FLAG 3680 64 0
FLAG 2320 -176 0
FLAG 2816 -208 0
FLAG 3264 -224 0
FLAG 976 224 0
SYMBOL voltage 1104 -320 R180
WINDOW 123 0 0 Left 0
WINDOW 39 0 0 Left 0
SYMATTR InstName V2
SYMATTR Value 5
SYMBOL voltage 1104 512 R180
WINDOW 123 0 0 Left 0
WINDOW 39 0 0 Left 0
SYMATTR InstName V3
SYMATTR Value 5
SYMBOL res 1504 80 R0
SYMATTR InstName R2
SYMATTR Value 50k
SYMBOL res 1872 32 R90
WINDOW 0 0 56 VBottom 2
WINDOW 3 32 56 VTop 2
SYMATTR InstName R3
SYMATTR Value 2k
SYMBOL cap 1904 96 R0
SYMATTR InstName C3
SYMATTR Value 8.2n
SYMBOL res 2320 16 R90
WINDOW 0 0 56 VBottom 2
WINDOW 3 32 56 VTop 2
SYMATTR InstName R4
SYMATTR Value 2k
SYMBOL cap 2352 80 R0
SYMATTR InstName C4
SYMATTR Value 8.2n
SYMBOL res 2768 0 R90
WINDOW 0 0 56 VBottom 2
WINDOW 3 32 56 VTop 2
SYMATTR InstName R5
SYMATTR Value 2k
SYMBOL cap 2800 64 R0
SYMATTR InstName C5
SYMATTR Value 8.2n
SYMBOL res 3216 -16 R90
WINDOW 0 0 56 VBottom 2
WINDOW 3 32 56 VTop 2
SYMATTR InstName R6
SYMATTR Value 2k
SYMBOL cap 3248 48 R0
SYMATTR InstName C6
SYMATTR Value 8.2n
SYMBOL res 3664 -32 R0
SYMATTR InstName R7
SYMATTR Value 10e6
SYMBOL cap 1456 48 R90
WINDOW 0 0 32 VBottom 2
WINDOW 3 32 32 VTop 2
SYMATTR InstName C2
SYMATTR Value 20n
SYMBOL cap 3584 -32 R90
WINDOW 0 0 32 VBottom 2
WINDOW 3 32 32 VTop 2
SYMATTR InstName C7
SYMATTR Value 10n
SYMBOL res 2448 -80 R90
WINDOW 0 0 56 VBottom 2
WINDOW 3 32 56 VTop 2
SYMATTR InstName R9
SYMATTR Value 0
SYMBOL res 2880 -96 R90
WINDOW 0 0 56 VBottom 2
WINDOW 3 32 56 VTop 2
SYMATTR InstName R11
SYMATTR Value 0
SYMBOL Opamps\\ADA4841 2016 32 R0
SYMATTR InstName U2
SYMBOL Opamps\\ADA4841 2464 16 R0
SYMATTR InstName U3
SYMBOL Opamps\\ADA4841 2912 0 R0
SYMATTR InstName U4
SYMBOL Opamps\\ADA4841 3360 -16 R0
SYMATTR InstName U5
SYMBOL res 3312 -112 R90
WINDOW 0 0 56 VBottom 2
WINDOW 3 32 56 VTop 2
SYMATTR InstName R12
SYMATTR Value 0
SYMBOL Opamps\\ADA4841 1632 48 R0
SYMATTR InstName U6
SYMBOL voltage 976 128 R0
WINDOW 0 24 96 Left 2
WINDOW 3 24 16 Left 2
WINDOW 123 0 0 Left 0
WINDOW 39 24 -12 Left 2
SYMATTR InstName V1
SYMATTR Value EXP(0 2 5u 5n 0 0.5u)
SYMATTR SpiceLine Rser=10
TEXT 904 312 Left 2 !.tran 200u
